8
STEP: 1200
P 27.077 -3.23831 56.1481
P 24.7729 -4.14368 56.4966
P 23.3807 -2.69204 57.9814
P 22.7856 -0.362142 57.2977
P 22.0761 2.03393 57.3717
P 22.3464 4.08032 55.9613
P 23.34 5.7496 57.5349
P 25.4395 5.19227 56.2973
8
STEP: 8300
P 21.4475 -0.899977 4.20277
P 22.1289 0.0635473 1.99882
P 24.2327 0.508718 3.27389
P 26.6856 0.989693 3.22919
P 27.1088 3.45262 3.29888
P 26.9681 5.9384 3.07272
P 28.7817 6.40842 4.72799
P 30.5513 6.98562 3.05907
8
STEP: 8400
P 24.4776 6.33208 2.65584
P 26.3719 7.92367 3.0139
P 28.5533 7.1388 2.07818
P 29.969 5.24854 2.89844
P 32.3187 6.01933 3.26526
P 34.5294 5.78542 4.40898
P 35.819 4.62276 6.20767
P 34.5774 6.62467 7.04484
8
STEP: 8700
P 27.1809 8.74916 4.31747
P 26.0953 8.79771 2.06604
P 23.6906 9.05024 2.7016
P 25.4561 10.4262 3.81512
P 25.0106 12.5664 5.02793
P 26.3858 12.7573 7.10695
P 28.7433 13.0232 7.89525
P 29.8365 13.3491 10.1198
8
STEP: 8800
P 28.0098 4.16402 8.66688
P 27.3482 3.95599 6.26499
P 26.4273 6.26679 6.01583
P 25.0756 6.97714 4.03633
P 24.4771 7.74352 1.73319
P 22.0475 7.34845 2.17004
P 23.4533 8.77811 3.66328
P 23.3473 10.2929 5.64931
8
STEP: 8900
P 24.2777 3.60534 13.9426
P 25.8317 5.01762 12.5859
P 28.3194 4.78907 12.4888
P 27.5645 3.53677 10.461
P 25.8315 3.40175 8.66419
P 25.8116 5.87543 8.30292
P 23.8699 5.31545 6.83107
P 22.4066 4.411 5.01709
8
STEP: 9300
P 20.9515 23.607 8.13381
P 21.0672 24.2961 5.73345
P 19.0134 25.6671 5.34305
P 16.589 25.5983 4.73677
P 17.7186 23.79 3.43129
P 18.592 23.4122 1.11949
P 20.9655 22.6371 0.994789
P 19.628 20.9496 2.265
